Simulator/carga.txt
new load.carga1 phases=3 conn=wye bus1=c1 kw=196.28 pf=0.81 kv=0.38 daily=semana
new load.carga2 phases=3 conn=wye bus1=c2 kw=181.73 pf=0.84 kv=0.38 daily=semana
new load.carga3 phases=3 conn=wye bus1=c3 kw=156.03 pf=0.86 kv=0.38 daily=semana
new load.carga4 phases=3 conn=wye bus1=c4 kw=164.24 pf=0.82 kv=0.38 daily=semana
new load.carga5 phases=3 conn=wye bus1=c5 kw=161.85 pf=0.84 kv=0.38 daily=semana
new load.carga6 phases=3 conn=wye bus1=c6 kw=167.92 pf=0.92 kv=0.38 daily=semana
new load.carga7 phases=3 conn=wye bus1=c7 kw=187.38 pf=0.90 kv=0.38 daily=semana
new load.carga8 phases=3 conn=wye bus1=c8 kw=167.00 pf=0.91 kv=0.38 daily=semana
new load.carga9 phases=3 conn=wye bus1=c9 kw=156.11 pf=0.91 kv=0.38 daily=semana
new load.carga10 phases=3 conn=wye bus1=c10 kw=188.67 pf=0.83 kv=0.38 daily=semana
new load.carga11 phases=3 conn=wye bus1=c11 kw=186.54 pf=0.98 kv=0.38 daily=semana
new load.carga12 phases=3 conn=wye bus1=c12 kw=151.89 pf=0.88 kv=0.38 daily=semana
new load.carga13 phases=3 conn=wye bus1=c13 kw=171.60 pf=0.94 kv=0.38 daily=semana
new load.carga14 phases=3 conn=wye bus1=c14 kw=186.90 pf=0.99 kv=0.38 daily=semana
new load.carga15 phases=3 conn=wye bus1=c15 kw=193.65 pf=0.99 kv=0.38 daily=semana
new load.carga16 phases=3 conn=wye bus1=c16 kw=151.28 pf=0.92 kv=0.38 daily=semana
new load.carga17 phases=3 conn=wye bus1=c17 kw=162.71 pf=0.87 kv=0.38 daily=semana
new load.carga18 phases=3 conn=wye bus1=c18 kw=160.94 pf=0.86 kv=0.38 daily=semana
new load.carga19 phases=3 conn=wye bus1=c19 kw=193.69 pf=0.94 kv=0.38 daily=semana
new load.carga20 phases=3 conn=wye bus1=c20 kw=167.50 pf=0.95 kv=0.38 daily=semana
new load.carga21 phases=3 conn=wye bus1=c21 kw=165.83 pf=0.89 kv=0.38 daily=semana
new load.carga22 phases=3 conn=wye bus1=c22 kw=172.66 pf=0.91 kv=0.38 daily=semana
new load.carga23 phases=3 conn=wye bus1=c23 kw=190.91 pf=0.91 kv=0.38 daily=semana
new load.carga24 phases=3 conn=wye bus1=c24 kw=172.69 pf=0.89 kv=0.38 daily=semana
new load.carga25 phases=3 conn=wye bus1=c25 kw=150.70 pf=0.93 kv=0.38 daily=semana
new load.carga26 phases=3 conn=wye bus1=c26 kw=175.67 pf=0.94 kv=0.38 daily=semana
new load.carga27 phases=3 conn=wye bus1=c27 kw=152.72 pf=0.85 kv=0.38 daily=semana
new load.carga28 phases=3 conn=wye bus1=c28 kw=187.98 pf=0.95 kv=0.38 daily=semana
new load.carga29 phases=3 conn=wye bus1=c29 kw=178.82 pf=0.94 kv=0.38 daily=semana
new load.carga30 phases=3 conn=wye bus1=c30 kw=180.13 pf=0.85 kv=0.38 daily=semana
new load.carga31 phases=3 conn=wye bus1=c31 kw=174.88 pf=0.84 kv=0.38 daily=semana
new load.carga32 phases=3 conn=wye bus1=c32 kw=158.89 pf=0.83 kv=0.38 daily=semana
new load.carga33 phases=3 conn=wye bus1=c33 kw=191.29 pf=0.84 kv=0.38 daily=semana
new load.carga34 phases=3 conn=wye bus1=c34 kw=181.04 pf=0.84 kv=0.38 daily=semana
new load.carga35 phases=3 conn=wye bus1=c35 kw=163.78 pf=0.93 kv=0.38 daily=semana
new load.carga36 phases=3 conn=wye bus1=c36 kw=197.52 pf=0.99 kv=0.38 daily=semana
new load.carga37 phases=3 conn=wye bus1=c37 kw=190.85 pf=0.96 kv=0.38 daily=semana
new load.carga38 phases=3 conn=wye bus1=c38 kw=198.41 pf=0.94 kv=0.38 daily=semana
new load.carga39 phases=3 conn=wye bus1=c39 kw=164.66 pf=0.89 kv=0.38 daily=semana
new load.carga40 phases=3 conn=wye bus1=c40 kw=161.15 pf=0.91 kv=0.38 daily=semana
new load.carga41 phases=3 conn=wye bus1=c41 kw=154.02 pf=0.85 kv=0.38 daily=semana
new load.carga42 phases=3 conn=wye bus1=c42 kw=152.76 pf=0.92 kv=0.38 daily=semana
new load.carga43 phases=3 conn=wye bus1=c43 kw=189.70 pf=0.86 kv=0.38 daily=semana
new load.carga44 phases=3 conn=wye bus1=c44 kw=173.90 pf=0.88 kv=0.38 daily=semana
new load.carga45 phases=3 conn=wye bus1=c45 kw=167.75 pf=0.83 kv=0.38 daily=semana
new load.carga46 phases=3 conn=wye bus1=c46 kw=158.01 pf=0.93 kv=0.38 daily=semana
new load.carga47 phases=3 conn=wye bus1=c47 kw=181.91 pf=0.90 kv=0.38 daily=semana
new load.carga48 phases=3 conn=wye bus1=c48 kw=156.04 pf=0.96 kv=0.38 daily=semana
new load.carga49 phases=3 conn=wye bus1=c49 kw=173.82 pf=0.90 kv=0.38 daily=semana
new load.carga50 phases=3 conn=wye bus1=c50 kw=164.26 pf=0.83 kv=0.38 daily=semana
new load.carga51 phases=3 conn=wye bus1=c51 kw=191.90 pf=0.83 kv=0.38 daily=semana
new load.carga52 phases=3 conn=wye bus1=c52 kw=181.76 pf=0.97 kv=0.38 daily=semana
new load.carga53 phases=3 conn=wye bus1=c53 kw=194.05 pf=0.95 kv=0.38 daily=semana
new load.carga54 phases=3 conn=wye bus1=c54 kw=176.64 pf=0.88 kv=0.38 daily=semana
new load.carga55 phases=3 conn=wye bus1=c55 kw=188.64 pf=0.84 kv=0.38 daily=semana
new load.carga56 phases=3 conn=wye bus1=c56 kw=153.52 pf=0.99 kv=0.38 daily=semana
new load.carga57 phases=3 conn=wye bus1=c57 kw=157.00 pf=0.92 kv=0.38 daily=semana
new load.carga58 phases=3 conn=wye bus1=c58 kw=175.56 pf=0.93 kv=0.38 daily=semana
new load.carga59 phases=3 conn=wye bus1=c59 kw=187.25 pf=0.80 kv=0.38 daily=semana
new load.carga60 phases=3 conn=wye bus1=c60 kw=161.45 pf=1.00 kv=0.38 daily=semana
new load.carga61 phases=3 conn=wye bus1=c61 kw=170.47 pf=0.94 kv=0.38 daily=semana
new load.carga62 phases=3 conn=wye bus1=c62 kw=150.39 pf=0.89 kv=0.38 daily=semana
new load.carga63 phases=3 conn=wye bus1=c63 kw=155.56 pf=1.00 kv=0.38 daily=semana
new load.carga64 phases=3 conn=wye bus1=c64 kw=188.57 pf=0.80 kv=0.38 daily=semana
new load.carga65 phases=3 conn=wye bus1=c65 kw=181.30 pf=0.89 kv=0.38 daily=semana
new load.carga66 phases=3 conn=wye bus1=c66 kw=156.99 pf=0.81 kv=0.38 daily=semana
new load.carga67 phases=3 conn=wye bus1=c67 kw=160.29 pf=0.96 kv=0.38 daily=semana
new load.carga68 phases=3 conn=wye bus1=c68 kw=175.98 pf=0.84 kv=0.38 daily=semana
new load.carga69 phases=3 conn=wye bus1=c69 kw=175.05 pf=0.87 kv=0.38 daily=semana
new load.carga70 phases=3 conn=wye bus1=c70 kw=180.92 pf=0.96 kv=0.38 daily=semana
new load.carga71 phases=3 conn=wye bus1=c71 kw=175.74 pf=0.94 kv=0.38 daily=semana
new load.carga72 phases=3 conn=wye bus1=c72 kw=181.54 pf=0.90 kv=0.38 daily=semana
new load.carga73 phases=3 conn=wye bus1=c73 kw=159.87 pf=0.99 kv=0.38 daily=semana
new load.carga74 phases=3 conn=wye bus1=c74 kw=157.77 pf=0.92 kv=0.38 daily=semana
new load.carga75 phases=3 conn=wye bus1=c75 kw=183.38 pf=0.92 kv=0.38 daily=semana
new load.carga76 phases=3 conn=wye bus1=c76 kw=190.79 pf=0.83 kv=0.38 daily=semana
new load.carga77 phases=3 conn=wye bus1=c77 kw=195.78 pf=0.95 kv=0.38 daily=semana
new load.carga78 phases=3 conn=wye bus1=c78 kw=198.32 pf=0.87 kv=0.38 daily=semana
new load.carga79 phases=3 conn=wye bus1=c79 kw=195.16 pf=0.96 kv=0.38 daily=semana
new load.carga80 phases=3 conn=wye bus1=c80 kw=163.18 pf=0.95 kv=0.38 daily=semana
new load.carga81 phases=3 conn=wye bus1=c81 kw=178.63 pf=0.94 kv=0.38 daily=semana
new load.carga82 phases=3 conn=wye bus1=c82 kw=182.77 pf=0.88 kv=0.38 daily=semana
new load.carga83 phases=3 conn=wye bus1=c83 kw=160.61 pf=0.83 kv=0.38 daily=semana
new load.carga84 phases=3 conn=wye bus1=c84 kw=186.08 pf=0.81 kv=0.38 daily=semana
new load.carga85 phases=3 conn=wye bus1=c85 kw=169.02 pf=0.93 kv=0.38 daily=semana
new load.carga86 phases=3 conn=wye bus1=c86 kw=170.93 pf=0.90 kv=0.38 daily=semana
new load.carga87 phases=3 conn=wye bus1=c87 kw=162.97 pf=0.85 kv=0.38 daily=semana
new load.carga88 phases=3 conn=wye bus1=c88 kw=172.10 pf=0.98 kv=0.38 daily=semana
new load.carga89 phases=3 conn=wye bus1=c89 kw=193.30 pf=0.93 kv=0.38 daily=semana
new load.carga90 phases=3 conn=wye bus1=c90 kw=177.95 pf=0.98 kv=0.38 daily=semana
new load.carga91 phases=3 conn=wye bus1=c91 kw=195.73 pf=0.94 kv=0.38 daily=semana
new load.carga92 phases=3 conn=wye bus1=c92 kw=155.41 pf=0.99 kv=0.38 daily=semana
new load.carga93 phases=3 conn=wye bus1=c93 kw=190.42 pf=0.85 kv=0.38 daily=semana
new load.carga94 phases=3 conn=wye bus1=c94 kw=151.29 pf=0.99 kv=0.38 daily=semana
new load.carga95 phases=3 conn=wye bus1=c95 kw=167.69 pf=0.85 kv=0.38 daily=semana
new load.carga96 phases=3 conn=wye bus1=c96 kw=161.00 pf=0.89 kv=0.38 daily=semana
new load.carga97 phases=3 conn=wye bus1=c97 kw=173.69 pf=0.90 kv=0.38 daily=semana
new load.carga98 phases=3 conn=wye bus1=c98 kw=169.21 pf=0.91 kv=0.38 daily=semana
new load.carga99 phases=3 conn=wye bus1=c99 kw=198.06 pf=0.94 kv=0.38 daily=semana
new load.carga100 phases=3 conn=wye bus1=c100 kw=162.42 pf=0.83 kv=0.38 daily=semana
new load.carga101 phases=3 conn=wye bus1=c101 kw=161.32 pf=0.84 kv=0.38 daily=semana
new load.carga102 phases=3 conn=wye bus1=c102 kw=197.11 pf=0.98 kv=0.38 daily=semana
new load.carga103 phases=3 conn=wye bus1=c103 kw=199.51 pf=0.88 kv=0.38 daily=semana
new load.carga104 phases=3 conn=wye bus1=c104 kw=155.21 pf=0.99 kv=0.38 daily=semana
new load.carga105 phases=3 conn=wye bus1=c105 kw=176.68 pf=0.80 kv=0.38 daily=semana
new load.carga106 phases=3 conn=wye bus1=c106 kw=181.56 pf=0.98 kv=0.38 daily=semana
new load.carga107 phases=3 conn=wye bus1=c107 kw=150.58 pf=0.97 kv=0.38 daily=semana
new load.carga108 phases=3 conn=wye bus1=c108 kw=174.71 pf=0.89 kv=0.38 daily=semana
new load.carga109 phases=3 conn=wye bus1=c109 kw=175.15 pf=0.90 kv=0.38 daily=semana
new load.carga110 phases=3 conn=wye bus1=c110 kw=196.74 pf=0.96 kv=0.38 daily=semana
new load.carga111 phases=3 conn=wye bus1=c111 kw=170.48 pf=0.97 kv=0.38 daily=semana
new load.carga112 phases=3 conn=wye bus1=c112 kw=187.42 pf=0.88 kv=0.38 daily=semana
new load.carga113 phases=3 conn=wye bus1=c113 kw=180.91 pf=0.88 kv=0.38 daily=semana
new load.carga114 phases=3 conn=wye bus1=c114 kw=186.31 pf=0.89 kv=0.38 daily=semana
new load.carga115 phases=3 conn=wye bus1=c115 kw=188.45 pf=0.82 kv=0.38 daily=semana
new load.carga116 phases=3 conn=wye bus1=c116 kw=164.08 pf=0.90 kv=0.38 daily=semana
new load.carga117 phases=3 conn=wye bus1=c117 kw=154.35 pf=0.94 kv=0.38 daily=semana
new load.carga118 phases=3 conn=wye bus1=c118 kw=166.23 pf=0.90 kv=0.38 daily=semana
new load.carga119 phases=3 conn=wye bus1=c119 kw=175.57 pf=0.83 kv=0.38 daily=semana
new load.carga120 phases=3 conn=wye bus1=c120 kw=188.94 pf=0.94 kv=0.38 daily=semana
new load.carga121 phases=3 conn=wye bus1=c121 kw=156.68 pf=0.95 kv=0.38 daily=semana
new load.carga122 phases=3 conn=wye bus1=c122 kw=186.37 pf=0.93 kv=0.38 daily=semana
new load.carga123 phases=3 conn=wye bus1=c123 kw=170.39 pf=0.86 kv=0.38 daily=semana
new load.carga124 phases=3 conn=wye bus1=c124 kw=177.32 pf=0.87 kv=0.38 daily=semana
new load.carga125 phases=3 conn=wye bus1=c125 kw=155.68 pf=0.82 kv=0.38 daily=semana
new load.carga126 phases=3 conn=wye bus1=c126 kw=196.86 pf=0.93 kv=0.38 daily=semana
new load.carga127 phases=3 conn=wye bus1=c127 kw=177.39 pf=1.00 kv=0.38 daily=semana
new load.carga128 phases=3 conn=wye bus1=c128 kw=197.29 pf=0.97 kv=0.38 daily=semana
new load.carga129 phases=3 conn=wye bus1=c129 kw=187.71 pf=0.87 kv=0.38 daily=semana
new load.carga130 phases=3 conn=wye bus1=c130 kw=168.45 pf=0.92 kv=0.38 daily=semana
new load.carga131 phases=3 conn=wye bus1=c131 kw=196.01 pf=0.87 kv=0.38 daily=semana
new load.carga132 phases=3 conn=wye bus1=c132 kw=174.06 pf=0.80 kv=0.38 daily=semana
new load.carga133 phases=3 conn=wye bus1=c133 kw=165.39 pf=0.98 kv=0.38 daily=semana
new load.carga134 phases=3 conn=wye bus1=c134 kw=193.40 pf=0.92 kv=0.38 daily=semana
new load.carga135 phases=3 conn=wye bus1=c135 kw=170.70 pf=0.80 kv=0.38 daily=semana
new load.carga136 phases=3 conn=wye bus1=c136 kw=156.34 pf=0.89 kv=0.38 daily=semana
new load.carga137 phases=3 conn=wye bus1=c137 kw=197.08 pf=0.88 kv=0.38 daily=semana
new load.carga138 phases=3 conn=wye bus1=c138 kw=175.38 pf=0.90 kv=0.38 daily=semana
new load.carga139 phases=3 conn=wye bus1=c139 kw=163.56 pf=0.85 kv=0.38 daily=semana
new load.carga140 phases=3 conn=wye bus1=c140 kw=155.61 pf=0.83 kv=0.38 daily=semana
new load.carga141 phases=3 conn=wye bus1=c141 kw=186.54 pf=0.83 kv=0.38 daily=semana
new load.carga142 phases=3 conn=wye bus1=c142 kw=161.94 pf=0.85 kv=0.38 daily=semana
new load.carga143 phases=3 conn=wye bus1=c143 kw=176.55 pf=0.96 kv=0.38 daily=semana
new load.carga144 phases=3 conn=wye bus1=c144 kw=182.90 pf=0.90 kv=0.38 daily=semana
new load.carga145 phases=3 conn=wye bus1=c145 kw=175.88 pf=0.90 kv=0.38 daily=semana
new load.carga146 phases=3 conn=wye bus1=c146 kw=167.29 pf=0.86 kv=0.38 daily=semana
new load.carga147 phases=3 conn=wye bus1=c147 kw=167.27 pf=0.90 kv=0.38 daily=semana
new load.carga148 phases=3 conn=wye bus1=c148 kw=167.70 pf=0.87 kv=0.38 daily=semana
new load.carga149 phases=3 conn=wye bus1=c149 kw=191.62 pf=0.81 kv=0.38 daily=semana
new load.carga150 phases=3 conn=wye bus1=c150 kw=158.86 pf=0.85 kv=0.38 daily=semana
new load.carga151 phases=3 conn=wye bus1=c151 kw=166.29 pf=0.88 kv=0.38 daily=semana
new load.carga152 phases=3 conn=wye bus1=c152 kw=158.82 pf=0.95 kv=0.38 daily=semana
new load.carga153 phases=3 conn=wye bus1=c153 kw=153.10 pf=0.88 kv=0.38 daily=semana
new load.carga154 phases=3 conn=wye bus1=c154 kw=195.99 pf=0.96 kv=0.38 daily=semana
new load.carga155 phases=3 conn=wye bus1=c155 kw=182.58 pf=0.98 kv=0.38 daily=semana
new load.carga156 phases=3 conn=wye bus1=c156 kw=188.55 pf=0.94 kv=0.38 daily=semana
new load.carga157 phases=3 conn=wye bus1=c157 kw=191.07 pf=0.86 kv=0.38 daily=semana
new load.carga158 phases=3 conn=wye bus1=c158 kw=199.23 pf=0.85 kv=0.38 daily=semana
new load.carga159 phases=3 conn=wye bus1=c159 kw=155.58 pf=0.81 kv=0.38 daily=semana
new load.carga160 phases=3 conn=wye bus1=c160 kw=184.84 pf=0.96 kv=0.38 daily=semana
new load.carga161 phases=3 conn=wye bus1=c161 kw=179.75 pf=0.86 kv=0.38 daily=semana
new load.carga162 phases=3 conn=wye bus1=c162 kw=182.56 pf=0.90 kv=0.38 daily=semana
new load.carga163 phases=3 conn=wye bus1=c163 kw=163.90 pf=0.92 kv=0.38 daily=semana
new load.carga164 phases=3 conn=wye bus1=c164 kw=195.21 pf=0.91 kv=0.38 daily=semana
new load.carga165 phases=3 conn=wye bus1=c165 kw=181.87 pf=0.95 kv=0.38 daily=semana
new load.carga166 phases=3 conn=wye bus1=c166 kw=189.77 pf=0.80 kv=0.38 daily=semana
new load.carga167 phases=3 conn=wye bus1=c167 kw=182.04 pf=0.87 kv=0.38 daily=semana
new load.carga168 phases=3 conn=wye bus1=c168 kw=198.39 pf=0.90 kv=0.38 daily=semana
new load.carga169 phases=3 conn=wye bus1=c169 kw=181.59 pf=0.85 kv=0.38 daily=semana
new load.carga170 phases=3 conn=wye bus1=c170 kw=185.42 pf=0.87 kv=0.38 daily=semana
new load.carga171 phases=3 conn=wye bus1=c171 kw=177.68 pf=0.98 kv=0.38 daily=semana
new load.carga172 phases=3 conn=wye bus1=c172 kw=196.48 pf=0.98 kv=0.38 daily=semana
new load.carga173 phases=3 conn=wye bus1=c173 kw=156.85 pf=0.95 kv=0.38 daily=semana
new load.carga174 phases=3 conn=wye bus1=c174 kw=156.92 pf=0.88 kv=0.38 daily=semana
new load.carga175 phases=3 conn=wye bus1=c175 kw=182.26 pf=0.89 kv=0.38 daily=semana
new load.carga176 phases=3 conn=wye bus1=c176 kw=153.03 pf=0.84 kv=0.38 daily=semana
new load.carga177 phases=3 conn=wye bus1=c177 kw=169.05 pf=0.80 kv=0.38 daily=semana
new load.carga178 phases=3 conn=wye bus1=c178 kw=197.66 pf=0.90 kv=0.38 daily=semana
new load.carga179 phases=3 conn=wye bus1=c179 kw=184.79 pf=0.90 kv=0.38 daily=semana
new load.carga180 phases=3 conn=wye bus1=c180 kw=175.94 pf=0.94 kv=0.38 daily=semana
new load.carga181 phases=3 conn=wye bus1=c181 kw=190.86 pf=0.95 kv=0.38 daily=semana
new load.carga182 phases=3 conn=wye bus1=c182 kw=155.77 pf=0.87 kv=0.38 daily=semana
new load.carga183 phases=3 conn=wye bus1=c183 kw=180.16 pf=0.82 kv=0.38 daily=semana
new load.carga184 phases=3 conn=wye bus1=c184 kw=162.02 pf=0.90 kv=0.38 daily=semana
new load.carga185 phases=3 conn=wye bus1=c185 kw=157.02 pf=0.82 kv=0.38 daily=semana
new load.carga186 phases=3 conn=wye bus1=c186 kw=155.18 pf=0.96 kv=0.38 daily=semana
new load.carga187 phases=3 conn=wye bus1=c187 kw=170.84 pf=0.84 kv=0.38 daily=semana
new load.carga188 phases=3 conn=wye bus1=c188 kw=169.66 pf=0.88 kv=0.38 daily=semana
new load.carga189 phases=3 conn=wye bus1=c189 kw=170.43 pf=0.95 kv=0.38 daily=semana
new load.carga190 phases=3 conn=wye bus1=c190 kw=157.33 pf=0.94 kv=0.38 daily=semana
new load.carga191 phases=3 conn=wye bus1=c191 kw=187.39 pf=0.97 kv=0.38 daily=semana
new load.carga192 phases=3 conn=wye bus1=c192 kw=182.46 pf=0.89 kv=0.38 daily=semana
new load.carga193 phases=3 conn=wye bus1=c193 kw=180.95 pf=0.96 kv=0.38 daily=semana
new load.carga194 phases=3 conn=wye bus1=c194 kw=194.75 pf=0.86 kv=0.38 daily=semana
new load.carga195 phases=3 conn=wye bus1=c195 kw=155.66 pf=0.99 kv=0.38 daily=semana
new load.carga196 phases=3 conn=wye bus1=c196 kw=171.28 pf=0.84 kv=0.38 daily=semana
new load.carga197 phases=3 conn=wye bus1=c197 kw=155.17 pf=0.88 kv=0.38 daily=semana
new load.carga198 phases=3 conn=wye bus1=c198 kw=166.50 pf=0.96 kv=0.38 daily=semana
new load.carga199 phases=3 conn=wye bus1=c199 kw=163.22 pf=0.87 kv=0.38 daily=semana
new load.carga200 phases=3 conn=wye bus1=c200 kw=160.78 pf=0.98 kv=0.38 daily=semana
